-----BEGIN PGP SIGNATURE-----

iQGzBAABCgAdFiEEV5m9fzdtEBHFELA2tAyPVRxKuJcFAmZf73IACgkQtAyPVRxK
uJdyAQwAsR8l3yDm5X3fry1FtfWqEj2yPYyHx84UnDLRValTIPFGru9w8QdXuynG
TRtlgWB+x7mSz8ed+e9MwBJz42Gfi/EUL57dF7ZJBLwGXsjts8IgIyF0aneeM6dV
7/uemqPf8K4CKgZEXFY93tSnHqf48kEDvUV/UwQHSIM1N59r1Dz8nnW0OpWEVR/J
6ZT6rWydvgtNAU3JlivGm0hgnTQ7u02BV3yoFGt8/vGfMPoRSW4bNpkifHCIY7fZ
Nic1/HGPyit8iRBmpmj0fPmt8FjoslBogXRAbQ+wOmdmEHnup5FmN6FGdpPOnpK5
19GGlfzLbUWeUO2+2dAnWZtc+JGsaNzr/jUg8oPBZYOROQJHZub+3tkuIJNfIC+F
h/1CgtSs7jRmRN472fRj71ijIUy3f1m7nFQRtFL+u/MT3DQfG8ux2zZ7TNCR9zWu
+/fPNHWQ0A7TcMGDPwZQS/N/rMCeWKI5Nf0H06mYqsnPQRb6ki9SIULiZcrQ35sP
grjmnviv
=99jd
-----END PGP SIGNATURE-----
